
This summary file was generated by TurbSim (v1.06.00, 21-Sep-2012) on 04-Jun-2018 at 13:16:31.


Runtime Options:

   2318573  Random seed #1
    RANLUX  Type of random number generator
         F  Output binary HH turbulence parameters?
         F  Output formatted turbulence parameters?
         F  Output AeroDyn HH files?
         F  Output AeroDyn FF files?
         T  Output BLADED FF files?
         F  Output tower data?
         F  Output formatted FF files?
         F  Output coherent turbulence time step file?
         T  Clockwise rotation when looking downwind?
 0 -  NONE  IEC turbulence models scaled to exact specified standard deviation


Turbine/Model Specifications:

        31  Vertical grid-point matrix dimension
        31  Horizontal grid-point matrix dimension
     0.050  Time step [seconds]
   700.000  Analysis time [seconds]
   600.000  Usable output time [seconds]
    90.000  Hub height [m]
   150.000  Grid height [m]
   150.000  Grid width [m]
     0.000  Vertical flow angle [degrees]
     0.000  Horizontal flow angle [degrees]


Meteorological Boundary Conditions:

    IECKAI  IEC Kaimal spectral model
         1  IEC standard: IEC 61400-1 Ed. 3: 2005
         C  IEC turbulence characteristic
      1ETM  IEC Extreme Turbulence Model
     2.000  IEC Extreme Turbulence Model (ETM) "c" parameter [m/s]
       IEC  Wind profile type
    90.000  Reference height [m]
    11.400  Reference wind speed [m/s]
       N/A  Jet height [m]
     0.200  Power law exponent
     0.030  Surface roughness length [m]


You have requested that the following file(s) be generated:

   TurbSim.wnd (AeroDyn/BLADED full-field wnd file)


Turbulence Simulation Scaling Parameter Summary:

   Turbulence model used                            =  IEC Kaimal
   Turbulence characteristic                        =  1C
   IEC turbulence type                              =  Extreme Turbulence Model
   Reference wind speed average over 10 minutes     =   50.000 m/s
   Annual wind speed average at hub height          =   10.000 m/s
   IEC standard                                     =  IEC 61400-1 Ed. 3: 2005
   Mean wind speed at hub height                    =   11.400 m/s
   Expected value of turbulence intensity at 15 m/s =   12.000%
   Characteristic value of standard deviation       =    2.635 m/s
   Turbulence scale                                 =   42.000 m
   u-component integral scale                       =  340.200 m
   Coherency scale                                  =  340.200 m
   Characteristic value of hub turbulence intensity =   23.114%
   Gradient Richardson number                       =    0.000

   Wind profile type                                =  Power law on rotor disk, logarithmic elsewhere
   Power law exponent                               =    0.200
   Mean shear across rotor disk                     =    0.033 (m/s)/m
   Assumed rotor diameter                           =  150.000 m
   Surface roughness length                         =    0.030 m

   Number of time steps in the FFT                  =    14000
   Number of time steps output                      =    12264


Mean Flow Angles:

   Vertical   =   0.0 degrees
   Horizontal =   0.0 degrees

Mean Wind Speed Profile:

   Height    Wind Speed   Horizontal Angle  U-comp (X)   V-comp (Y)   W-comp (Z)
     (m)        (m/s)         (degrees)       (m/s)        (m/s)        (m/s)   
   ------    ----------   ----------------  ----------   ----------   ----------
    165.0       12.87            0.00         12.87         0.00         0.00
    160.0       12.79            0.00         12.79         0.00         0.00
    155.0       12.71            0.00         12.71         0.00         0.00
    150.0       12.63            0.00         12.63         0.00         0.00
    145.0       12.54            0.00         12.54         0.00         0.00
    140.0       12.45            0.00         12.45         0.00         0.00
    135.0       12.36            0.00         12.36         0.00         0.00
    130.0       12.27            0.00         12.27         0.00         0.00
    125.0       12.17            0.00         12.17         0.00         0.00
    120.0       12.08            0.00         12.08         0.00         0.00
    115.0       11.97            0.00         11.97         0.00         0.00
    110.0       11.87            0.00         11.87         0.00         0.00
    105.0       11.76            0.00         11.76         0.00         0.00
    100.0       11.64            0.00         11.64         0.00         0.00
     95.0       11.52            0.00         11.52         0.00         0.00
     90.0       11.40            0.00         11.40         0.00         0.00
     85.0       11.27            0.00         11.27         0.00         0.00
     80.0       11.13            0.00         11.13         0.00         0.00
     75.0       10.99            0.00         10.99         0.00         0.00
     70.0       10.84            0.00         10.84         0.00         0.00
     65.0       10.68            0.00         10.68         0.00         0.00
     60.0       10.51            0.00         10.51         0.00         0.00
     55.0       10.33            0.00         10.33         0.00         0.00
     50.0       10.14            0.00         10.14         0.00         0.00
     45.0        9.92            0.00          9.92         0.00         0.00
     40.0        9.69            0.00          9.69         0.00         0.00
     35.0        9.44            0.00          9.44         0.00         0.00
     30.0        9.15            0.00          9.15         0.00         0.00
     25.0        8.82            0.00          8.82         0.00         0.00
     20.0        8.44            0.00          8.44         0.00         0.00
     15.0        7.97            0.00          7.97         0.00         0.00


Harvested Random Seeds after Generation of the Random Numbers:

    187515125 K1
            0 K2


Hub-Height Simulated Turbulence Statistical Summary:

   Type of Wind        Min (m/s)   Mean (m/s)    Max (m/s)  Sigma (m/s)       TI (%)
   ----------------    ---------   ----------    ---------  -----------       ------
   Longitudinal (u)         3.12        11.40        19.89        2.951       25.883
   Lateral (v)             -7.87         0.00         7.89        2.063       18.100
   Vertical (w)            -5.92         0.00         4.50        1.289       11.307
   U component              3.12        11.40        19.89        2.951       25.883
   V component             -7.87         0.00         7.89        2.063       18.100
   W component             -5.92         0.00         4.50        1.289       11.307
   Horizontal (U&V)         3.15        11.58        20.52        2.959       25.547
   Total                    3.19        11.66        20.54        2.937       25.188

                       Min Reynolds     Mean Reynolds    Max Reynolds    Correlation
   Product             Stress (m/s)^2   Stress (m/s)^2   Stress (m/s)^2  Coefficient
   ----------------    --------------   --------------   --------------  -----------
   u'w'                    -22.643             0.234            22.625         0.062
   u'v'                    -46.810             0.455            44.818         0.075
   v'w'                    -18.366            -0.144            16.256        -0.054


   Friction Velocity (Ustar)  =      0.484 m/s
   Maximum Instantaneous TKE  =     50.966 (m/s)^2
   Maximum Instantaneous CTKE =     23.880 (m/s)^2


Grid Point Variance Summary:

   Y-coord  -75.00  -70.00  -65.00  -60.00  -55.00  -50.00  -45.00  -40.00  -35.00  -30.00  -25.00  -20.00  -15.00  -10.00   -5.00    0.00    5.00   10.00   15.00   20.00   25.00   30.00   35.00   40.00   45.00   50.00   55.00   60.00   65.00   70.00   75.00

   Height   Standard deviation at grid points for the u component:
   165.00    2.179   2.296   2.157   2.189   2.272   2.220   2.016   2.029   2.111   2.299   2.124   2.277   2.120   2.230   2.122   2.236   2.425   2.579   2.547   2.466   2.444   2.239   2.271   2.246   2.316   2.362   2.344   2.330   2.412   2.524   2.459
   160.00    2.192   2.224   2.248   2.139   2.156   2.224   2.193   2.050   2.143   2.187   2.204   2.323   2.278   2.274   2.268   2.342   2.370   2.547   2.351   2.348   2.353   2.459   2.429   2.320   2.334   2.321   2.432   2.376   2.385   2.448   2.340
   155.00    2.344   2.336   2.246   2.222   2.298   2.330   2.228   2.085   2.165   2.230   2.252   2.362   2.271   2.357   2.337   2.347   2.356   2.394   2.384   2.442   2.537   2.540   2.453   2.376   2.318   2.252   2.248   2.349   2.274   2.432   2.371
   150.00    2.267   2.190   2.285   2.334   2.364   2.323   2.305   2.180   2.249   2.282   2.344   2.283   2.291   2.350   2.316   2.416   2.251   2.331   2.385   2.389   2.396   2.503   2.422   2.431   2.350   2.307   2.303   2.297   2.293   2.283   2.268
   145.00    2.324   2.487   2.374   2.414   2.529   2.413   2.258   2.135   2.225   2.301   2.421   2.357   2.313   2.373   2.404   2.373   2.402   2.296   2.290   2.315   2.402   2.460   2.470   2.438   2.495   2.309   2.281   2.292   2.187   2.377   2.324
   140.00    2.657   2.562   2.406   2.254   2.396   2.322   2.281   2.240   2.441   2.302   2.251   2.408   2.375   2.408   2.309   2.422   2.361   2.414   2.433   2.465   2.452   2.389   2.538   2.507   2.484   2.398   2.346   2.350   2.316   2.463   2.407
   135.00    2.572   2.300   2.420   2.314   2.288   2.329   2.334   2.400   2.443   2.523   2.432   2.489   2.485   2.543   2.557   2.648   2.465   2.452   2.571   2.475   2.521   2.657   2.578   2.575   2.536   2.489   2.540   2.396   2.457   2.502   2.476
   130.00    2.514   2.529   2.410   2.299   2.310   2.359   2.383   2.527   2.641   2.528   2.477   2.547   2.556   2.700   2.710   2.795   2.592   2.679   2.593   2.451   2.572   2.568   2.457   2.554   2.518   2.504   2.585   2.624   2.533   2.568   2.585
   125.00    2.575   2.484   2.473   2.567   2.470   2.306   2.448   2.468   2.512   2.403   2.482   2.487   2.488   2.704   2.792   2.708   2.641   2.538   2.639   2.641   2.567   2.526   2.541   2.535   2.563   2.488   2.640   2.718   2.578   2.471   2.540
   120.00    2.497   2.491   2.374   2.525   2.448   2.455   2.508   2.522   2.548   2.539   2.644   2.733   2.519   2.663   2.672   2.777   2.630   2.454   2.568   2.710   2.697   2.619   2.486   2.619   2.556   2.518   2.750   2.755   2.690   2.514   2.608
   115.00    2.436   2.497   2.445   2.431   2.528   2.625   2.647   2.667   2.576   2.561   2.619   2.715   2.743   2.700   2.717   2.762   2.640   2.585   2.726   2.700   2.678   2.683   2.677   2.733   2.753   2.764   2.698   2.766   2.709   2.549   2.586
   110.00    2.469   2.495   2.516   2.629   2.781   2.813   2.751   2.896   2.779   2.636   2.551   2.545   2.667   2.512   2.694   2.684   2.693   2.634   2.664   2.851   2.723   2.786   2.825   2.943   2.913   2.856   2.708   2.740   2.777   2.626   2.618
   105.00    2.423   2.559   2.633   2.812   2.747   2.770   2.768   2.836   2.747   2.770   2.647   2.666   2.730   2.704   2.808   2.817   2.801   2.748   2.745   2.861   2.817   2.886   2.866   2.824   2.957   2.833   2.760   2.776   2.696   2.668   2.755
   100.00    2.437   2.400   2.719   2.797   2.861   2.630   2.766   2.741   2.887   2.763   2.667   2.572   2.733   2.794   2.829   2.981   2.856   2.885   2.900   2.963   2.970   2.855   2.846   2.892   2.920   2.946   2.826   2.876   2.726   2.746   2.699
    95.00    2.502   2.603   2.767   2.816   2.912   2.788   2.899   2.827   2.838   2.940   2.971   2.847   2.808   2.861   2.871   2.938   3.006   3.032   3.118   2.997   3.030   2.773   2.713   2.647   2.834   3.031   2.811   2.795   2.695   2.709   2.685
    90.00    2.580   2.652   2.764   2.752   2.844   2.852   2.907   2.821   2.880   2.944   2.978   2.967   3.020   3.005   2.980   2.951   3.182   3.239   3.033   2.868   2.861   2.717   2.870   2.811   2.907   2.858   2.714   2.593   2.649   2.792   2.722
    85.00    2.699   2.631   2.780   2.877   2.846   2.910   3.003   2.891   2.922   3.162   3.111   2.991   3.073   3.248   3.165   3.249   3.138   3.057   3.034   2.828   2.753   2.804   2.683   2.733   2.694   2.592   2.523   2.506   2.521   2.686   2.484
    80.00    2.838   2.642   2.782   2.770   2.771   2.756   2.903   2.999   3.113   3.232   3.083   3.061   3.188   3.279   3.208   3.222   3.159   3.195   2.934   2.894   2.966   2.824   2.584   2.568   2.651   2.442   2.383   2.459   2.575   2.530   2.498
    75.00    2.868   2.730   2.741   2.835   2.848   2.911   2.761   3.100   3.076   3.162   2.948   2.949   3.151   3.133   3.167   2.961   3.023   3.036   3.000   2.966   2.762   2.785   2.729   2.726   2.553   2.576   2.607   2.371   2.429   2.584   2.533
    70.00    2.825   2.886   2.818   2.793   2.912   2.760   2.789   3.027   3.237   3.160   3.040   3.131   3.028   3.158   3.186   3.035   3.000   3.082   3.021   2.814   2.758   2.646   2.589   2.696   2.710   2.630   2.463   2.378   2.450   2.498   2.477
    65.00    2.814   2.693   2.655   2.859   2.796   2.858   2.995   3.003   3.090   3.199   3.306   3.253   3.177   3.102   3.118   3.095   2.941   2.941   2.924   2.893   2.703   2.636   2.775   2.855   2.745   2.729   2.521   2.445   2.336   2.413   2.524
    60.00    2.694   2.576   2.629   2.913   2.831   2.863   2.953   2.984   3.246   3.354   3.209   3.148   3.101   3.126   3.068   3.021   2.934   2.888   2.783   2.808   2.691   2.721   2.722   2.737   2.636   2.747   2.559   2.633   2.558   2.549   2.579
    55.00    2.523   2.645   2.605   2.796   2.831   2.834   2.989   3.070   3.175   3.225   3.210   3.105   3.084   3.035   2.901   2.880   2.842   2.689   2.605   2.748   2.691   2.727   2.638   2.599   2.701   2.658   2.612   2.559   2.576   2.807   2.631
    50.00    2.821   2.699   2.714   2.723   2.896   2.913   2.899   3.090   3.098   3.103   3.200   3.093   3.069   3.089   2.898   2.901   2.762   2.622   2.746   2.617   2.691   2.609   2.550   2.609   2.649   2.579   2.609   2.630   2.659   2.837   2.789
    45.00    2.662   2.786   2.852   2.756   2.725   2.865   2.933   2.933   3.052   3.033   2.940   3.048   3.093   2.817   2.925   2.851   2.768   2.860   2.719   2.663   2.564   2.411   2.562   2.576   2.644   2.552   2.625   2.579   2.550   2.808   2.944
    40.00    2.529   2.495   2.654   2.570   2.732   2.915   2.993   3.019   2.858   2.893   2.772   2.936   2.899   2.864   3.100   3.131   2.842   2.865   2.875   2.789   2.645   2.485   2.592   2.613   2.565   2.516   2.552   2.667   2.656   2.853   2.799
    35.00    2.476   2.526   2.538   2.468   2.631   2.881   2.894   2.861   2.958   2.946   2.865   2.788   2.796   2.816   3.017   3.072   2.962   3.025   2.982   2.923   2.610   2.412   2.569   2.495   2.562   2.565   2.606   2.636   2.704   2.834   2.914
    30.00    2.478   2.519   2.690   2.503   2.680   2.739   2.711   2.804   2.880   2.793   2.731   2.766   2.803   2.856   2.936   2.837   2.884   2.969   2.856   2.713   2.629   2.491   2.486   2.589   2.499   2.643   2.737   2.693   2.702   2.896   2.950
    25.00    2.438   2.567   2.472   2.571   2.724   2.693   2.648   2.724   2.775   2.784   2.757   2.635   2.743   2.781   2.776   2.842   2.722   2.695   2.702   2.542   2.614   2.453   2.592   2.642   2.545   2.590   2.783   2.865   2.626   2.715   2.848
    20.00    2.579   2.682   2.567   2.679   2.645   2.802   2.754   2.736   2.700   2.785   2.742   2.813   2.820   2.821   2.933   2.771   2.762   2.578   2.507   2.649   2.540   2.436   2.456   2.473   2.594   2.542   2.751   2.795   2.696   2.738   2.816
    15.00    2.519   2.639   2.623   2.572   2.763   2.844   2.856   2.865   2.768   2.762   2.913   2.889   2.783   2.897   2.892   2.771   2.661   2.637   2.683   2.812   2.609   2.572   2.614   2.605   2.710   2.697   2.739   2.754   2.815   2.713   2.745

   Height   Standard deviation at grid points for the v component:
   165.00    2.063   2.063   2.063   2.063   2.063   2.063   2.063   2.063   2.063   2.063   2.063   2.063   2.063   2.063   2.063   2.063   2.063   2.063   2.063   2.063   2.063   2.063   2.063   2.063   2.063   2.063   2.063   2.063   2.063   2.063   2.063
   160.00    2.063   2.063   2.063   2.063   2.063   2.063   2.063   2.063   2.063   2.063   2.063   2.063   2.063   2.063   2.063   2.063   2.063   2.063   2.063   2.063   2.063   2.063   2.063   2.063   2.063   2.063   2.063   2.063   2.063   2.063   2.063
   155.00    2.063   2.063   2.063   2.063   2.063   2.063   2.063   2.063   2.063   2.063   2.063   2.063   2.063   2.063   2.063   2.063   2.063   2.063   2.063   2.063   2.063   2.063   2.063   2.063   2.063   2.063   2.063   2.063   2.063   2.063   2.063
   150.00    2.063   2.063   2.063   2.063   2.063   2.063   2.063   2.063   2.063   2.063   2.063   2.063   2.063   2.063   2.063   2.063   2.063   2.063   2.063   2.063   2.063   2.063   2.063   2.063   2.063   2.063   2.063   2.063   2.063   2.063   2.063
   145.00    2.063   2.063   2.063   2.063   2.063   2.063   2.063   2.063   2.063   2.063   2.063   2.063   2.063   2.063   2.063   2.063   2.063   2.063   2.063   2.063   2.063   2.063   2.063   2.063   2.063   2.063   2.063   2.063   2.063   2.063   2.063
   140.00    2.063   2.063   2.063   2.063   2.063   2.063   2.063   2.063   2.063   2.063   2.063   2.063   2.063   2.063   2.063   2.063   2.063   2.063   2.063   2.063   2.063   2.063   2.063   2.063   2.063   2.063   2.063   2.063   2.063   2.063   2.063
   135.00    2.063   2.063   2.063   2.063   2.063   2.063   2.063   2.063   2.063   2.063   2.063   2.063   2.063   2.063   2.063   2.063   2.063   2.063   2.063   2.063   2.063   2.063   2.063   2.063   2.063   2.063   2.063   2.063   2.063   2.063   2.063
   130.00    2.063   2.063   2.063   2.063   2.063   2.063   2.063   2.063   2.063   2.063   2.063   2.063   2.063   2.063   2.063   2.063   2.063   2.063   2.063   2.063   2.063   2.063   2.063   2.063   2.063   2.063   2.063   2.063   2.063   2.063   2.063
   125.00    2.063   2.063   2.063   2.063   2.063   2.063   2.063   2.063   2.063   2.063   2.063   2.063   2.063   2.063   2.063   2.063   2.063   2.063   2.063   2.063   2.063   2.063   2.063   2.063   2.063   2.063   2.063   2.063   2.063   2.063   2.063
   120.00    2.063   2.063   2.063   2.063   2.063   2.063   2.063   2.063   2.063   2.063   2.063   2.063   2.063   2.063   2.063   2.063   2.063   2.063   2.063   2.063   2.063   2.063   2.063   2.063   2.063   2.063   2.063   2.063   2.063   2.063   2.063
   115.00    2.063   2.063   2.063   2.063   2.063   2.063   2.063   2.063   2.063   2.063   2.063   2.063   2.063   2.063   2.063   2.063   2.063   2.063   2.063   2.063   2.063   2.063   2.063   2.063   2.063   2.063   2.063   2.063   2.063   2.063   2.063
   110.00    2.063   2.063   2.063   2.063   2.063   2.063   2.063   2.063   2.063   2.063   2.063   2.063   2.063   2.063   2.063   2.063   2.063   2.063   2.063   2.063   2.063   2.063   2.063   2.063   2.063   2.063   2.063   2.063   2.063   2.063   2.063
   105.00    2.063   2.063   2.063   2.063   2.063   2.063   2.063   2.063   2.063   2.063   2.063   2.063   2.063   2.063   2.063   2.063   2.063   2.063   2.063   2.063   2.063   2.063   2.063   2.063   2.063   2.063   2.063   2.063   2.063   2.063   2.063
   100.00    2.063   2.063   2.063   2.063   2.063   2.063   2.063   2.063   2.063   2.063   2.063   2.063   2.063   2.063   2.063   2.063   2.063   2.063   2.063   2.063   2.063   2.063   2.063   2.063   2.063   2.063   2.063   2.063   2.063   2.063   2.063
    95.00    2.063   2.063   2.063   2.063   2.063   2.063   2.063   2.063   2.063   2.063   2.063   2.063   2.063   2.063   2.063   2.063   2.063   2.063   2.063   2.063   2.063   2.063   2.063   2.063   2.063   2.063   2.063   2.063   2.063   2.063   2.063
    90.00    2.063   2.063   2.063   2.063   2.063   2.063   2.063   2.063   2.063   2.063   2.063   2.063   2.063   2.063   2.063   2.063   2.063   2.063   2.063   2.063   2.063   2.063   2.063   2.063   2.063   2.063   2.063   2.063   2.063   2.063   2.063
    85.00    2.063   2.063   2.063   2.063   2.063   2.063   2.063   2.063   2.063   2.063   2.063   2.063   2.063   2.063   2.063   2.063   2.063   2.063   2.063   2.063   2.063   2.063   2.063   2.063   2.063   2.063   2.063   2.063   2.063   2.063   2.063
    80.00    2.063   2.063   2.063   2.063   2.063   2.063   2.063   2.063   2.063   2.063   2.063   2.063   2.063   2.063   2.063   2.063   2.063   2.063   2.063   2.063   2.063   2.063   2.063   2.063   2.063   2.063   2.063   2.063   2.063   2.063   2.063
    75.00    2.063   2.063   2.063   2.063   2.063   2.063   2.063   2.063   2.063   2.063   2.063   2.063   2.063   2.063   2.063   2.063   2.063   2.063   2.063   2.063   2.063   2.063   2.063   2.063   2.063   2.063   2.063   2.063   2.063   2.063   2.063
    70.00    2.063   2.063   2.063   2.063   2.063   2.063   2.063   2.063   2.063   2.063   2.063   2.063   2.063   2.063   2.063   2.063   2.063   2.063   2.063   2.063   2.063   2.063   2.063   2.063   2.063   2.063   2.063   2.063   2.063   2.063   2.063
    65.00    2.063   2.063   2.063   2.063   2.063   2.063   2.063   2.063   2.063   2.063   2.063   2.063   2.063   2.063   2.063   2.063   2.063   2.063   2.063   2.063   2.063   2.063   2.063   2.063   2.063   2.063   2.063   2.063   2.063   2.063   2.063
    60.00    2.063   2.063   2.063   2.063   2.063   2.063   2.063   2.063   2.063   2.063   2.063   2.063   2.063   2.063   2.063   2.063   2.063   2.063   2.063   2.063   2.063   2.063   2.063   2.063   2.063   2.063   2.063   2.063   2.063   2.063   2.063
    55.00    2.063   2.063   2.063   2.063   2.063   2.063   2.063   2.063   2.063   2.063   2.063   2.063   2.063   2.063   2.063   2.063   2.063   2.063   2.063   2.063   2.063   2.063   2.063   2.063   2.063   2.063   2.063   2.063   2.063   2.063   2.063
    50.00    2.063   2.063   2.063   2.063   2.063   2.063   2.063   2.063   2.063   2.063   2.063   2.063   2.063   2.063   2.063   2.063   2.063   2.063   2.063   2.063   2.063   2.063   2.063   2.063   2.063   2.063   2.063   2.063   2.063   2.063   2.063
    45.00    2.063   2.063   2.063   2.063   2.063   2.063   2.063   2.063   2.063   2.063   2.063   2.063   2.063   2.063   2.063   2.063   2.063   2.063   2.063   2.063   2.063   2.063   2.063   2.063   2.063   2.063   2.063   2.063   2.063   2.063   2.063
    40.00    2.063   2.063   2.063   2.063   2.063   2.063   2.063   2.063   2.063   2.063   2.063   2.063   2.063   2.063   2.063   2.063   2.063   2.063   2.063   2.063   2.063   2.063   2.063   2.063   2.063   2.063   2.063   2.063   2.063   2.063   2.063
    35.00    2.063   2.063   2.063   2.063   2.063   2.063   2.063   2.063   2.063   2.063   2.063   2.063   2.063   2.063   2.063   2.063   2.063   2.063   2.063   2.063   2.063   2.063   2.063   2.063   2.063   2.063   2.063   2.063   2.063   2.063   2.063
    30.00    2.063   2.063   2.063   2.063   2.063   2.063   2.063   2.063   2.063   2.063   2.063   2.063   2.063   2.063   2.063   2.063   2.063   2.063   2.063   2.063   2.063   2.063   2.063   2.063   2.063   2.063   2.063   2.063   2.063   2.063   2.063
    25.00    2.063   2.063   2.063   2.063   2.063   2.063   2.063   2.063   2.063   2.063   2.063   2.063   2.063   2.063   2.063   2.063   2.063   2.063   2.063   2.063   2.063   2.063   2.063   2.063   2.063   2.063   2.063   2.063   2.063   2.063   2.063
    20.00    2.063   2.063   2.063   2.063   2.063   2.063   2.063   2.063   2.063   2.063   2.063   2.063   2.063   2.063   2.063   2.063   2.063   2.063   2.063   2.063   2.063   2.063   2.063   2.063   2.063   2.063   2.063   2.063   2.063   2.063   2.063
    15.00    2.063   2.063   2.063   2.063   2.063   2.063   2.063   2.063   2.063   2.063   2.063   2.063   2.063   2.063   2.063   2.063   2.063   2.063   2.063   2.063   2.063   2.063   2.063   2.063   2.063   2.063   2.063   2.063   2.063   2.063   2.063

   Height   Standard deviation at grid points for the w component:
   165.00    1.289   1.289   1.289   1.289   1.289   1.289   1.289   1.289   1.289   1.289   1.289   1.289   1.289   1.289   1.289   1.289   1.289   1.289   1.289   1.289   1.289   1.289   1.289   1.289   1.289   1.289   1.289   1.289   1.289   1.289   1.289
   160.00    1.289   1.289   1.289   1.289   1.289   1.289   1.289   1.289   1.289   1.289   1.289   1.289   1.289   1.289   1.289   1.289   1.289   1.289   1.289   1.289   1.289   1.289   1.289   1.289   1.289   1.289   1.289   1.289   1.289   1.289   1.289
   155.00    1.289   1.289   1.289   1.289   1.289   1.289   1.289   1.289   1.289   1.289   1.289   1.289   1.289   1.289   1.289   1.289   1.289   1.289   1.289   1.289   1.289   1.289   1.289   1.289   1.289   1.289   1.289   1.289   1.289   1.289   1.289
   150.00    1.289   1.289   1.289   1.289   1.289   1.289   1.289   1.289   1.289   1.289   1.289   1.289   1.289   1.289   1.289   1.289   1.289   1.289   1.289   1.289   1.289   1.289   1.289   1.289   1.289   1.289   1.289   1.289   1.289   1.289   1.289
   145.00    1.289   1.289   1.289   1.289   1.289   1.289   1.289   1.289   1.289   1.289   1.289   1.289   1.289   1.289   1.289   1.289   1.289   1.289   1.289   1.289   1.289   1.289   1.289   1.289   1.289   1.289   1.289   1.289   1.289   1.289   1.289
   140.00    1.289   1.289   1.289   1.289   1.289   1.289   1.289   1.289   1.289   1.289   1.289   1.289   1.289   1.289   1.289   1.289   1.289   1.289   1.289   1.289   1.289   1.289   1.289   1.289   1.289   1.289   1.289   1.289   1.289   1.289   1.289
   135.00    1.289   1.289   1.289   1.289   1.289   1.289   1.289   1.289   1.289   1.289   1.289   1.289   1.289   1.289   1.289   1.289   1.289   1.289   1.289   1.289   1.289   1.289   1.289   1.289   1.289   1.289   1.289   1.289   1.289   1.289   1.289
   130.00    1.289   1.289   1.289   1.289   1.289   1.289   1.289   1.289   1.289   1.289   1.289   1.289   1.289   1.289   1.289   1.289   1.289   1.289   1.289   1.289   1.289   1.289   1.289   1.289   1.289   1.289   1.289   1.289   1.289   1.289   1.289
   125.00    1.289   1.289   1.289   1.289   1.289   1.289   1.289   1.289   1.289   1.289   1.289   1.289   1.289   1.289   1.289   1.289   1.289   1.289   1.289   1.289   1.289   1.289   1.289   1.289   1.289   1.289   1.289   1.289   1.289   1.289   1.289
   120.00    1.289   1.289   1.289   1.289   1.289   1.289   1.289   1.289   1.289   1.289   1.289   1.289   1.289   1.289   1.289   1.289   1.289   1.289   1.289   1.289   1.289   1.289   1.289   1.289   1.289   1.289   1.289   1.289   1.289   1.289   1.289
   115.00    1.289   1.289   1.289   1.289   1.289   1.289   1.289   1.289   1.289   1.289   1.289   1.289   1.289   1.289   1.289   1.289   1.289   1.289   1.289   1.289   1.289   1.289   1.289   1.289   1.289   1.289   1.289   1.289   1.289   1.289   1.289
   110.00    1.289   1.289   1.289   1.289   1.289   1.289   1.289   1.289   1.289   1.289   1.289   1.289   1.289   1.289   1.289   1.289   1.289   1.289   1.289   1.289   1.289   1.289   1.289   1.289   1.289   1.289   1.289   1.289   1.289   1.289   1.289
   105.00    1.289   1.289   1.289   1.289   1.289   1.289   1.289   1.289   1.289   1.289   1.289   1.289   1.289   1.289   1.289   1.289   1.289   1.289   1.289   1.289   1.289   1.289   1.289   1.289   1.289   1.289   1.289   1.289   1.289   1.289   1.289
   100.00    1.289   1.289   1.289   1.289   1.289   1.289   1.289   1.289   1.289   1.289   1.289   1.289   1.289   1.289   1.289   1.289   1.289   1.289   1.289   1.289   1.289   1.289   1.289   1.289   1.289   1.289   1.289   1.289   1.289   1.289   1.289
    95.00    1.289   1.289   1.289   1.289   1.289   1.289   1.289   1.289   1.289   1.289   1.289   1.289   1.289   1.289   1.289   1.289   1.289   1.289   1.289   1.289   1.289   1.289   1.289   1.289   1.289   1.289   1.289   1.289   1.289   1.289   1.289
    90.00    1.289   1.289   1.289   1.289   1.289   1.289   1.289   1.289   1.289   1.289   1.289   1.289   1.289   1.289   1.289   1.289   1.289   1.289   1.289   1.289   1.289   1.289   1.289   1.289   1.289   1.289   1.289   1.289   1.289   1.289   1.289
    85.00    1.289   1.289   1.289   1.289   1.289   1.289   1.289   1.289   1.289   1.289   1.289   1.289   1.289   1.289   1.289   1.289   1.289   1.289   1.289   1.289   1.289   1.289   1.289   1.289   1.289   1.289   1.289   1.289   1.289   1.289   1.289
    80.00    1.289   1.289   1.289   1.289   1.289   1.289   1.289   1.289   1.289   1.289   1.289   1.289   1.289   1.289   1.289   1.289   1.289   1.289   1.289   1.289   1.289   1.289   1.289   1.289   1.289   1.289   1.289   1.289   1.289   1.289   1.289
    75.00    1.289   1.289   1.289   1.289   1.289   1.289   1.289   1.289   1.289   1.289   1.289   1.289   1.289   1.289   1.289   1.289   1.289   1.289   1.289   1.289   1.289   1.289   1.289   1.289   1.289   1.289   1.289   1.289   1.289   1.289   1.289
    70.00    1.289   1.289   1.289   1.289   1.289   1.289   1.289   1.289   1.289   1.289   1.289   1.289   1.289   1.289   1.289   1.289   1.289   1.289   1.289   1.289   1.289   1.289   1.289   1.289   1.289   1.289   1.289   1.289   1.289   1.289   1.289
    65.00    1.289   1.289   1.289   1.289   1.289   1.289   1.289   1.289   1.289   1.289   1.289   1.289   1.289   1.289   1.289   1.289   1.289   1.289   1.289   1.289   1.289   1.289   1.289   1.289   1.289   1.289   1.289   1.289   1.289   1.289   1.289
    60.00    1.289   1.289   1.289   1.289   1.289   1.289   1.289   1.289   1.289   1.289   1.289   1.289   1.289   1.289   1.289   1.289   1.289   1.289   1.289   1.289   1.289   1.289   1.289   1.289   1.289   1.289   1.289   1.289   1.289   1.289   1.289
    55.00    1.289   1.289   1.289   1.289   1.289   1.289   1.289   1.289   1.289   1.289   1.289   1.289   1.289   1.289   1.289   1.289   1.289   1.289   1.289   1.289   1.289   1.289   1.289   1.289   1.289   1.289   1.289   1.289   1.289   1.289   1.289
    50.00    1.289   1.289   1.289   1.289   1.289   1.289   1.289   1.289   1.289   1.289   1.289   1.289   1.289   1.289   1.289   1.289   1.289   1.289   1.289   1.289   1.289   1.289   1.289   1.289   1.289   1.289   1.289   1.289   1.289   1.289   1.289
    45.00    1.289   1.289   1.289   1.289   1.289   1.289   1.289   1.289   1.289   1.289   1.289   1.289   1.289   1.289   1.289   1.289   1.289   1.289   1.289   1.289   1.289   1.289   1.289   1.289   1.289   1.289   1.289   1.289   1.289   1.289   1.289
    40.00    1.289   1.289   1.289   1.289   1.289   1.289   1.289   1.289   1.289   1.289   1.289   1.289   1.289   1.289   1.289   1.289   1.289   1.289   1.289   1.289   1.289   1.289   1.289   1.289   1.289   1.289   1.289   1.289   1.289   1.289   1.289
    35.00    1.289   1.289   1.289   1.289   1.289   1.289   1.289   1.289   1.289   1.289   1.289   1.289   1.289   1.289   1.289   1.289   1.289   1.289   1.289   1.289   1.289   1.289   1.289   1.289   1.289   1.289   1.289   1.289   1.289   1.289   1.289
    30.00    1.289   1.289   1.289   1.289   1.289   1.289   1.289   1.289   1.289   1.289   1.289   1.289   1.289   1.289   1.289   1.289   1.289   1.289   1.289   1.289   1.289   1.289   1.289   1.289   1.289   1.289   1.289   1.289   1.289   1.289   1.289
    25.00    1.289   1.289   1.289   1.289   1.289   1.289   1.289   1.289   1.289   1.289   1.289   1.289   1.289   1.289   1.289   1.289   1.289   1.289   1.289   1.289   1.289   1.289   1.289   1.289   1.289   1.289   1.289   1.289   1.289   1.289   1.289
    20.00    1.289   1.289   1.289   1.289   1.289   1.289   1.289   1.289   1.289   1.289   1.289   1.289   1.289   1.289   1.289   1.289   1.289   1.289   1.289   1.289   1.289   1.289   1.289   1.289   1.289   1.289   1.289   1.289   1.289   1.289   1.289
    15.00    1.289   1.289   1.289   1.289   1.289   1.289   1.289   1.289   1.289   1.289   1.289   1.289   1.289   1.289   1.289   1.289   1.289   1.289   1.289   1.289   1.289   1.289   1.289   1.289   1.289   1.289   1.289   1.289   1.289   1.289   1.289

   Mean standard deviation across all grid points:
      u component:    2.663 m/s
      v component:    2.063 m/s
      w component:    1.289 m/s


U-component (X) statistics from the hub grid point:

   Mean =  11.4000 m/s
   TI   =  25.8830 %


Normalizing Parameters for Binary Data (approximate statistics):

   UBar  =  11.4000 m/s
   TI(u) =  25.8830 %
   TI(v) =  18.1003 %
   TI(w) =  11.3069 %

   Height Offset =   0.0000 m
   Grid Base     =  15.0000 m

Nyquist frequency of turbulent wind field =        10.000 Hz


Processing complete.  193.84 CPU seconds used.
