
This summary file was generated by TurbSim (v1.06.00, 21-Sep-2012) on 29-May-2023 at 09:54:52.


Runtime Options:

  25626103  Random seed #1
    RANLUX  Type of random number generator
         F  Output binary HH turbulence parameters?
         F  Output formatted turbulence parameters?
         F  Output AeroDyn HH files?
         F  Output AeroDyn FF files?
         T  Output BLADED FF files?
         F  Output tower data?
         F  Output formatted FF files?
         F  Output coherent turbulence time step file?
         T  Clockwise rotation when looking downwind?
 0 -  NONE  IEC turbulence models scaled to exact specified standard deviation


Turbine/Model Specifications:

        31  Vertical grid-point matrix dimension
        31  Horizontal grid-point matrix dimension
     0.050  Time step [seconds]
   100.000  Analysis time [seconds]
   100.000  Usable output time [seconds]
    90.000  Hub height [m]
   160.000  Grid height [m]
   160.000  Grid width [m]
     0.000  Vertical flow angle [degrees]
     0.000  Horizontal flow angle [degrees]


Meteorological Boundary Conditions:

    IECKAI  IEC Kaimal spectral model
         1  IEC standard: IEC 61400-1 Ed. 3: 2005
         A  IEC turbulence characteristic
       NTM  IEC Normal Turbulence Model
       N/A  IEC Extreme Turbulence Model (ETM) "c" parameter [m/s]
       IEC  Wind profile type
    90.000  Reference height [m]
     8.800  Reference wind speed [m/s]
       N/A  Jet height [m]
     0.200  Power law exponent
     0.030  Surface roughness length [m]


You have requested that the following file(s) be generated:

   TurbSim.wnd (AeroDyn/BLADED full-field wnd file)


Turbulence Simulation Scaling Parameter Summary:

   Turbulence model used                            =  IEC Kaimal
   Turbulence characteristic                        =  A
   IEC turbulence type                              =  Normal Turbulence Model
   IEC standard                                     =  IEC 61400-1 Ed. 3: 2005
   Mean wind speed at hub height                    =    8.800 m/s
   Expected value of turbulence intensity at 15 m/s =   16.000%
   Characteristic value of standard deviation       =    1.952 m/s
   Turbulence scale                                 =   42.000 m
   u-component integral scale                       =  340.200 m
   Coherency scale                                  =  340.200 m
   Characteristic value of hub turbulence intensity =   22.182%
   Gradient Richardson number                       =    0.000

   Wind profile type                                =  Power law on rotor disk, logarithmic elsewhere
   Power law exponent                               =    0.200
   Mean shear across rotor disk                     =    0.027 (m/s)/m
   Assumed rotor diameter                           =  160.000 m
   Surface roughness length                         =    0.030 m

   Number of time steps in the FFT                  =     2376
   Number of time steps output                      =     2364


Mean Flow Angles:

   Vertical   =   0.0 degrees
   Horizontal =   0.0 degrees

Mean Wind Speed Profile:

   Height    Wind Speed   Horizontal Angle  U-comp (X)   V-comp (Y)   W-comp (Z)
     (m)        (m/s)         (degrees)       (m/s)        (m/s)        (m/s)   
   ------    ----------   ----------------  ----------   ----------   ----------
    170.0        9.99            0.00          9.99         0.00         0.00
    164.7        9.93            0.00          9.93         0.00         0.00
    159.3        9.86            0.00          9.86         0.00         0.00
    154.0        9.80            0.00          9.80         0.00         0.00
    148.7        9.73            0.00          9.73         0.00         0.00
    143.3        9.66            0.00          9.66         0.00         0.00
    138.0        9.59            0.00          9.59         0.00         0.00
    132.7        9.51            0.00          9.51         0.00         0.00
    127.3        9.43            0.00          9.43         0.00         0.00
    122.0        9.35            0.00          9.35         0.00         0.00
    116.7        9.27            0.00          9.27         0.00         0.00
    111.3        9.18            0.00          9.18         0.00         0.00
    106.0        9.09            0.00          9.09         0.00         0.00
    100.7        9.00            0.00          9.00         0.00         0.00
     95.3        8.90            0.00          8.90         0.00         0.00
     90.0        8.80            0.00          8.80         0.00         0.00
     84.7        8.69            0.00          8.69         0.00         0.00
     79.3        8.58            0.00          8.58         0.00         0.00
     74.0        8.46            0.00          8.46         0.00         0.00
     68.7        8.34            0.00          8.34         0.00         0.00
     63.3        8.20            0.00          8.20         0.00         0.00
     58.0        8.06            0.00          8.06         0.00         0.00
     52.7        7.91            0.00          7.91         0.00         0.00
     47.3        7.74            0.00          7.74         0.00         0.00
     42.0        7.56            0.00          7.56         0.00         0.00
     36.7        7.35            0.00          7.35         0.00         0.00
     31.3        7.13            0.00          7.13         0.00         0.00
     26.0        6.86            0.00          6.86         0.00         0.00
     20.7        6.56            0.00          6.56         0.00         0.00
     15.3        6.18            0.00          6.18         0.00         0.00
     10.0        5.67            0.00          5.67         0.00         0.00


Harvested Random Seeds after Generation of the Random Numbers:

     31823896 K1
            0 K2


Hub-Height Simulated Turbulence Statistical Summary:

   Type of Wind        Min (m/s)   Mean (m/s)    Max (m/s)  Sigma (m/s)       TI (%)
   ----------------    ---------   ----------    ---------  -----------       ------
   Longitudinal (u)         3.72         8.80        13.21        1.702       19.344
   Lateral (v)             -4.11         0.00         4.28        1.404       15.953
   Vertical (w)            -2.62         0.00         3.02        0.936       10.632
   U component              3.72         8.80        13.21        1.702       19.344
   V component             -4.11         0.00         4.28        1.404       15.953
   W component             -2.62         0.00         3.02        0.936       10.632
   Horizontal (U&V)         4.17         8.92        13.23        1.665       18.675
   Total                    4.17         8.97        13.24        1.661       18.525

                       Min Reynolds     Mean Reynolds    Max Reynolds    Correlation
   Product             Stress (m/s)^2   Stress (m/s)^2   Stress (m/s)^2  Coefficient
   ----------------    --------------   --------------   --------------  -----------
   u'w'                     -5.257             0.489             8.667         0.307
   u'v'                     -8.684             0.516            11.906         0.216
   v'w'                     -4.018             0.329             8.030         0.250


   Friction Velocity (Ustar)  =      0.699 m/s
   Maximum Instantaneous TKE  =     14.643 (m/s)^2
   Maximum Instantaneous CTKE =      7.968 (m/s)^2


Grid Point Variance Summary:

   Y-coord  -80.00  -74.67  -69.33  -64.00  -58.67  -53.33  -48.00  -42.67  -37.33  -32.00  -26.67  -21.33  -16.00  -10.67   -5.33    0.00    5.33   10.67   16.00   21.33   26.67   32.00   37.33   42.67   48.00   53.33   58.67   64.00   69.33   74.67   80.00

   Height   Standard deviation at grid points for the u component:
   170.00    1.251   1.178   1.125   1.036   1.220   1.428   1.300   1.452   1.312   1.248   1.013   1.330   1.128   1.063   0.991   1.243   1.493   1.540   1.492   1.326   1.388   1.283   1.157   1.607   1.582   1.591   1.642   1.717   1.809   1.701   1.520
   164.67    1.209   1.286   1.326   1.111   1.148   1.291   1.289   1.038   1.183   1.193   1.107   1.213   1.138   1.208   1.156   1.235   1.566   1.869   1.634   1.398   1.262   1.417   1.450   1.576   1.830   1.820   1.752   1.891   1.532   1.485   1.646
   159.33    1.318   1.252   1.234   1.231   1.061   1.056   1.081   1.243   1.054   0.977   1.035   1.030   1.280   1.103   1.261   1.254   1.520   1.787   1.560   1.408   1.474   1.540   1.479   1.636   1.827   1.757   1.725   1.736   1.448   1.422   1.339
   154.00    1.157   1.237   1.158   1.102   0.974   0.960   1.158   1.069   1.059   1.054   0.926   1.148   1.188   1.292   1.570   1.537   1.451   1.763   1.797   1.333   1.440   1.577   1.338   1.798   1.884   1.680   1.523   1.574   1.492   1.405   1.479
   148.67    1.187   1.151   1.232   1.260   1.025   1.012   1.025   1.032   1.049   1.163   1.052   1.130   1.112   1.154   1.481   1.610   1.716   1.746   1.698   1.310   1.392   1.406   1.611   1.703   1.901   1.892   1.756   1.532   1.565   1.200   1.367
   143.33    1.250   1.166   1.155   1.023   0.865   0.937   0.937   1.057   1.181   1.235   1.028   1.053   1.114   1.124   1.242   1.520   1.616   1.736   1.909   1.572   1.443   1.720   1.514   1.692   1.502   1.590   1.643   1.646   1.476   1.287   1.368
   138.00    1.492   1.126   1.017   1.096   0.951   1.145   1.139   1.151   0.967   1.158   1.348   1.035   1.295   1.592   1.316   1.228   1.764   1.912   1.887   1.652   1.693   1.753   1.568   1.471   1.665   1.578   1.446   1.699   1.421   1.644   1.407
   132.67    1.470   1.339   1.054   1.078   0.812   1.096   1.085   1.117   1.113   1.195   1.195   1.202   1.269   1.529   1.376   1.332   1.634   2.074   2.023   2.032   2.062   1.929   1.665   1.596   1.631   1.518   1.510   1.391   1.464   1.405   1.237
   127.33    1.544   1.565   1.303   1.250   1.199   1.019   1.013   1.145   1.108   1.278   1.473   1.557   1.305   1.313   1.473   1.588   1.717   1.822   1.893   2.052   1.962   1.988   1.891   1.810   1.509   1.414   1.620   1.468   1.278   1.273   1.305
   122.00    1.367   1.410   1.261   1.290   1.336   1.170   1.097   1.367   1.247   1.347   1.442   1.377   1.328   1.691   1.480   1.531   1.633   1.733   1.877   1.889   1.992   2.203   1.898   1.927   1.668   1.806   1.607   1.556   1.355   1.215   1.301
   116.67    1.567   1.420   1.257   1.245   1.261   1.272   1.277   1.456   1.237   1.344   1.264   1.356   1.456   1.655   1.467   1.463   1.870   1.668   1.546   1.474   1.704   1.916   1.982   1.608   1.733   1.674   1.737   1.437   1.213   1.241   1.152
   111.33    1.546   1.545   1.435   1.662   1.513   1.354   1.429   1.499   1.549   1.320   1.216   1.425   1.503   1.487   1.486   1.686   1.812   1.901   1.529   1.620   1.487   1.840   1.691   1.617   1.736   1.420   1.497   1.661   1.542   1.564   1.374
   106.00    1.554   1.378   1.387   1.568   1.698   1.608   1.666   1.533   1.565   1.323   1.296   1.658   1.507   1.464   1.594   1.577   1.720   1.764   1.541   1.418   1.461   1.573   1.763   1.589   1.524   1.520   1.541   1.723   1.529   1.386   1.489
   100.67    1.408   1.412   1.312   1.469   1.544   1.543   1.499   1.304   1.391   1.376   1.353   1.513   1.872   1.524   1.752   1.623   1.670   1.582   1.528   1.427   1.415   1.468   1.493   1.600   1.528   1.637   1.554   1.646   1.585   1.384   1.179
    95.33    1.514   1.170   1.270   1.289   1.425   1.619   1.601   1.623   1.733   1.631   1.748   1.876   1.889   1.917   1.836   1.615   1.614   1.593   1.437   1.270   1.254   1.236   1.414   1.605   1.602   1.495   1.554   1.369   1.464   1.068   1.212
    90.00    1.560   1.263   1.285   1.189   1.267   1.241   1.485   1.561   1.600   1.557   1.744   1.719   1.761   1.724   1.882   1.702   1.596   1.681   1.525   1.260   1.253   1.424   1.593   1.784   1.599   1.471   1.273   1.389   1.475   1.429   1.210
    84.67    1.389   1.513   1.234   1.202   1.182   1.067   1.358   1.496   1.604   1.742   1.520   1.783   1.687   1.609   1.727   1.416   1.460   1.602   1.219   1.462   1.279   1.389   1.507   1.369   1.505   1.562   1.261   1.423   1.235   1.169   1.093
    79.33    1.532   1.331   1.376   1.268   1.072   1.281   1.348   1.484   1.510   1.549   1.451   1.669   1.877   1.774   1.610   1.566   1.596   1.211   1.314   1.227   1.585   1.442   1.383   1.321   1.652   1.541   1.479   1.317   1.445   1.394   1.309
    74.00    1.267   1.345   1.179   1.297   1.117   1.074   1.196   1.223   1.229   1.379   1.253   1.480   1.730   1.745   1.674   1.916   1.635   1.324   1.404   1.523   1.631   1.608   1.330   1.258   1.550   1.680   1.674   1.431   1.387   1.451   1.524
    68.67    1.270   1.267   1.512   1.549   1.263   0.978   1.134   1.082   1.272   1.171   1.239   1.386   1.238   1.440   1.662   1.828   1.643   1.640   1.568   1.715   1.511   1.611   1.533   1.262   1.457   1.651   1.614   1.465   1.527   1.606   1.551
    63.33    1.708   1.553   1.626   1.564   1.528   1.357   1.261   1.323   1.206   1.215   1.094   1.250   1.276   1.319   1.454   1.456   1.584   1.714   1.622   1.667   1.534   1.349   1.330   1.413   1.503   1.614   1.370   1.273   1.304   1.552   1.774
    58.00    1.767   1.511   1.723   1.682   1.501   1.517   1.359   1.571   1.312   1.188   1.390   1.417   1.390   1.035   1.196   1.475   1.437   1.608   1.548   1.664   1.468   1.378   1.403   1.288   1.478   1.376   1.327   1.393   1.418   1.558   1.616
    52.67    1.736   1.775   1.570   1.802   1.659   1.540   1.498   1.461   1.604   1.367   1.197   1.367   1.285   1.237   1.078   1.216   1.551   1.654   1.553   1.656   1.518   1.086   1.169   1.256   1.362   1.472   1.536   1.348   1.497   1.489   1.379
    47.33    1.657   1.814   1.556   1.746   1.631   1.602   1.484   1.554   1.600   1.562   1.193   1.354   1.180   1.098   1.201   1.308   1.493   1.448   1.458   1.568   1.222   1.339   1.298   1.276   1.198   1.290   1.409   1.455   1.514   1.380   1.390
    42.00    1.432   1.579   1.800   1.724   1.612   1.554   1.190   1.435   1.697   1.433   1.320   1.183   1.202   1.146   1.353   1.465   1.606   1.566   1.525   1.706   1.588   1.666   1.687   1.470   1.329   1.476   1.445   1.616   1.654   1.207   1.102
    36.67    1.366   1.371   1.544   1.414   1.386   1.573   1.315   1.315   1.592   1.379   1.275   1.421   1.139   1.318   1.353   1.456   1.376   1.387   1.768   1.637   1.762   1.719   1.630   1.546   1.338   1.351   1.410   1.554   1.550   1.252   1.196
    31.33    1.129   1.297   1.536   1.402   1.639   1.505   1.452   1.385   1.719   1.687   1.696   1.330   1.347   1.193   1.355   1.432   1.294   1.554   1.851   1.694   1.794   1.843   1.682   1.717   1.391   1.475   1.230   1.321   1.473   1.551   1.268
    26.00    1.448   1.303   1.411   1.736   1.607   1.679   2.030   1.689   1.727   1.899   1.757   1.322   1.161   1.163   1.239   1.460   1.348   1.295   1.471   1.704   1.977   2.054   1.914   1.955   1.741   1.718   1.462   1.341   1.601   1.644   1.463
    20.67    1.164   1.463   1.601   1.562   1.705   1.838   1.964   1.944   2.118   2.115   1.638   1.234   1.137   1.042   1.243   1.521   1.501   1.431   1.636   1.606   1.764   2.053   2.021   1.929   1.900   1.987   1.615   1.499   1.712   1.749   1.564
    15.33    1.427   1.504   1.580   1.653   1.553   1.800   2.000   1.971   1.929   2.175   1.873   1.370   1.116   1.352   1.353   1.447   1.478   1.607   1.702   1.793   1.802   1.939   1.962   1.795   1.683   1.677   1.781   1.557   1.839   1.671   1.656
    10.00    1.519   1.574   1.770   1.695   1.522   1.642   1.744   1.899   2.041   2.243   1.944   1.515   1.238   1.188   1.164   1.388   1.604   1.820   1.598   1.888   1.734   1.836   1.772   1.759   1.672   1.664   1.567   1.356   1.483   1.755   1.655

   Height   Standard deviation at grid points for the v component:
   170.00    1.404   1.404   1.404   1.404   1.404   1.404   1.404   1.404   1.404   1.404   1.404   1.404   1.404   1.404   1.404   1.404   1.404   1.404   1.404   1.404   1.404   1.404   1.404   1.404   1.404   1.404   1.404   1.404   1.404   1.404   1.404
   164.67    1.404   1.404   1.404   1.404   1.404   1.404   1.404   1.404   1.404   1.404   1.404   1.404   1.404   1.404   1.404   1.404   1.404   1.404   1.404   1.404   1.404   1.404   1.404   1.404   1.404   1.404   1.404   1.404   1.404   1.404   1.404
   159.33    1.404   1.404   1.404   1.404   1.404   1.404   1.404   1.404   1.404   1.404   1.404   1.404   1.404   1.404   1.404   1.404   1.404   1.404   1.404   1.404   1.404   1.404   1.404   1.404   1.404   1.404   1.404   1.404   1.404   1.404   1.404
   154.00    1.404   1.404   1.404   1.404   1.404   1.404   1.404   1.404   1.404   1.404   1.404   1.404   1.404   1.404   1.404   1.404   1.404   1.404   1.404   1.404   1.404   1.404   1.404   1.404   1.404   1.404   1.404   1.404   1.404   1.404   1.404
   148.67    1.404   1.404   1.404   1.404   1.404   1.404   1.404   1.404   1.404   1.404   1.404   1.404   1.404   1.404   1.404   1.404   1.404   1.404   1.404   1.404   1.404   1.404   1.404   1.404   1.404   1.404   1.404   1.404   1.404   1.404   1.404
   143.33    1.404   1.404   1.404   1.404   1.404   1.404   1.404   1.404   1.404   1.404   1.404   1.404   1.404   1.404   1.404   1.404   1.404   1.404   1.404   1.404   1.404   1.404   1.404   1.404   1.404   1.404   1.404   1.404   1.404   1.404   1.404
   138.00    1.404   1.404   1.404   1.404   1.404   1.404   1.404   1.404   1.404   1.404   1.404   1.404   1.404   1.404   1.404   1.404   1.404   1.404   1.404   1.404   1.404   1.404   1.404   1.404   1.404   1.404   1.404   1.404   1.404   1.404   1.404
   132.67    1.404   1.404   1.404   1.404   1.404   1.404   1.404   1.404   1.404   1.404   1.404   1.404   1.404   1.404   1.404   1.404   1.404   1.404   1.404   1.404   1.404   1.404   1.404   1.404   1.404   1.404   1.404   1.404   1.404   1.404   1.404
   127.33    1.404   1.404   1.404   1.404   1.404   1.404   1.404   1.404   1.404   1.404   1.404   1.404   1.404   1.404   1.404   1.404   1.404   1.404   1.404   1.404   1.404   1.404   1.404   1.404   1.404   1.404   1.404   1.404   1.404   1.404   1.404
   122.00    1.404   1.404   1.404   1.404   1.404   1.404   1.404   1.404   1.404   1.404   1.404   1.404   1.404   1.404   1.404   1.404   1.404   1.404   1.404   1.404   1.404   1.404   1.404   1.404   1.404   1.404   1.404   1.404   1.404   1.404   1.404
   116.67    1.404   1.404   1.404   1.404   1.404   1.404   1.404   1.404   1.404   1.404   1.404   1.404   1.404   1.404   1.404   1.404   1.404   1.404   1.404   1.404   1.404   1.404   1.404   1.404   1.404   1.404   1.404   1.404   1.404   1.404   1.404
   111.33    1.404   1.404   1.404   1.404   1.404   1.404   1.404   1.404   1.404   1.404   1.404   1.404   1.404   1.404   1.404   1.404   1.404   1.404   1.404   1.404   1.404   1.404   1.404   1.404   1.404   1.404   1.404   1.404   1.404   1.404   1.404
   106.00    1.404   1.404   1.404   1.404   1.404   1.404   1.404   1.404   1.404   1.404   1.404   1.404   1.404   1.404   1.404   1.404   1.404   1.404   1.404   1.404   1.404   1.404   1.404   1.404   1.404   1.404   1.404   1.404   1.404   1.404   1.404
   100.67    1.404   1.404   1.404   1.404   1.404   1.404   1.404   1.404   1.404   1.404   1.404   1.404   1.404   1.404   1.404   1.404   1.404   1.404   1.404   1.404   1.404   1.404   1.404   1.404   1.404   1.404   1.404   1.404   1.404   1.404   1.404
    95.33    1.404   1.404   1.404   1.404   1.404   1.404   1.404   1.404   1.404   1.404   1.404   1.404   1.404   1.404   1.404   1.404   1.404   1.404   1.404   1.404   1.404   1.404   1.404   1.404   1.404   1.404   1.404   1.404   1.404   1.404   1.404
    90.00    1.404   1.404   1.404   1.404   1.404   1.404   1.404   1.404   1.404   1.404   1.404   1.404   1.404   1.404   1.404   1.404   1.404   1.404   1.404   1.404   1.404   1.404   1.404   1.404   1.404   1.404   1.404   1.404   1.404   1.404   1.404
    84.67    1.404   1.404   1.404   1.404   1.404   1.404   1.404   1.404   1.404   1.404   1.404   1.404   1.404   1.404   1.404   1.404   1.404   1.404   1.404   1.404   1.404   1.404   1.404   1.404   1.404   1.404   1.404   1.404   1.404   1.404   1.404
    79.33    1.404   1.404   1.404   1.404   1.404   1.404   1.404   1.404   1.404   1.404   1.404   1.404   1.404   1.404   1.404   1.404   1.404   1.404   1.404   1.404   1.404   1.404   1.404   1.404   1.404   1.404   1.404   1.404   1.404   1.404   1.404
    74.00    1.404   1.404   1.404   1.404   1.404   1.404   1.404   1.404   1.404   1.404   1.404   1.404   1.404   1.404   1.404   1.404   1.404   1.404   1.404   1.404   1.404   1.404   1.404   1.404   1.404   1.404   1.404   1.404   1.404   1.404   1.404
    68.67    1.404   1.404   1.404   1.404   1.404   1.404   1.404   1.404   1.404   1.404   1.404   1.404   1.404   1.404   1.404   1.404   1.404   1.404   1.404   1.404   1.404   1.404   1.404   1.404   1.404   1.404   1.404   1.404   1.404   1.404   1.404
    63.33    1.404   1.404   1.404   1.404   1.404   1.404   1.404   1.404   1.404   1.404   1.404   1.404   1.404   1.404   1.404   1.404   1.404   1.404   1.404   1.404   1.404   1.404   1.404   1.404   1.404   1.404   1.404   1.404   1.404   1.404   1.404
    58.00    1.404   1.404   1.404   1.404   1.404   1.404   1.404   1.404   1.404   1.404   1.404   1.404   1.404   1.404   1.404   1.404   1.404   1.404   1.404   1.404   1.404   1.404   1.404   1.404   1.404   1.404   1.404   1.404   1.404   1.404   1.404
    52.67    1.404   1.404   1.404   1.404   1.404   1.404   1.404   1.404   1.404   1.404   1.404   1.404   1.404   1.404   1.404   1.404   1.404   1.404   1.404   1.404   1.404   1.404   1.404   1.404   1.404   1.404   1.404   1.404   1.404   1.404   1.404
    47.33    1.404   1.404   1.404   1.404   1.404   1.404   1.404   1.404   1.404   1.404   1.404   1.404   1.404   1.404   1.404   1.404   1.404   1.404   1.404   1.404   1.404   1.404   1.404   1.404   1.404   1.404   1.404   1.404   1.404   1.404   1.404
    42.00    1.404   1.404   1.404   1.404   1.404   1.404   1.404   1.404   1.404   1.404   1.404   1.404   1.404   1.404   1.404   1.404   1.404   1.404   1.404   1.404   1.404   1.404   1.404   1.404   1.404   1.404   1.404   1.404   1.404   1.404   1.404
    36.67    1.404   1.404   1.404   1.404   1.404   1.404   1.404   1.404   1.404   1.404   1.404   1.404   1.404   1.404   1.404   1.404   1.404   1.404   1.404   1.404   1.404   1.404   1.404   1.404   1.404   1.404   1.404   1.404   1.404   1.404   1.404
    31.33    1.404   1.404   1.404   1.404   1.404   1.404   1.404   1.404   1.404   1.404   1.404   1.404   1.404   1.404   1.404   1.404   1.404   1.404   1.404   1.404   1.404   1.404   1.404   1.404   1.404   1.404   1.404   1.404   1.404   1.404   1.404
    26.00    1.404   1.404   1.404   1.404   1.404   1.404   1.404   1.404   1.404   1.404   1.404   1.404   1.404   1.404   1.404   1.404   1.404   1.404   1.404   1.404   1.404   1.404   1.404   1.404   1.404   1.404   1.404   1.404   1.404   1.404   1.404
    20.67    1.404   1.404   1.404   1.404   1.404   1.404   1.404   1.404   1.404   1.404   1.404   1.404   1.404   1.404   1.404   1.404   1.404   1.404   1.404   1.404   1.404   1.404   1.404   1.404   1.404   1.404   1.404   1.404   1.404   1.404   1.404
    15.33    1.404   1.404   1.404   1.404   1.404   1.404   1.404   1.404   1.404   1.404   1.404   1.404   1.404   1.404   1.404   1.404   1.404   1.404   1.404   1.404   1.404   1.404   1.404   1.404   1.404   1.404   1.404   1.404   1.404   1.404   1.404
    10.00    1.404   1.404   1.404   1.404   1.404   1.404   1.404   1.404   1.404   1.404   1.404   1.404   1.404   1.404   1.404   1.404   1.404   1.404   1.404   1.404   1.404   1.404   1.404   1.404   1.404   1.404   1.404   1.404   1.404   1.404   1.404

   Height   Standard deviation at grid points for the w component:
   170.00    0.936   0.936   0.936   0.936   0.936   0.936   0.936   0.936   0.936   0.936   0.936   0.936   0.936   0.936   0.936   0.936   0.936   0.936   0.936   0.936   0.936   0.936   0.936   0.936   0.936   0.936   0.936   0.936   0.936   0.936   0.936
   164.67    0.936   0.936   0.936   0.936   0.936   0.936   0.936   0.936   0.936   0.936   0.936   0.936   0.936   0.936   0.936   0.936   0.936   0.936   0.936   0.936   0.936   0.936   0.936   0.936   0.936   0.936   0.936   0.936   0.936   0.936   0.936
   159.33    0.936   0.936   0.936   0.936   0.936   0.936   0.936   0.936   0.936   0.936   0.936   0.936   0.936   0.936   0.936   0.936   0.936   0.936   0.936   0.936   0.936   0.936   0.936   0.936   0.936   0.936   0.936   0.936   0.936   0.936   0.936
   154.00    0.936   0.936   0.936   0.936   0.936   0.936   0.936   0.936   0.936   0.936   0.936   0.936   0.936   0.936   0.936   0.936   0.936   0.936   0.936   0.936   0.936   0.936   0.936   0.936   0.936   0.936   0.936   0.936   0.936   0.936   0.936
   148.67    0.936   0.936   0.936   0.936   0.936   0.936   0.936   0.936   0.936   0.936   0.936   0.936   0.936   0.936   0.936   0.936   0.936   0.936   0.936   0.936   0.936   0.936   0.936   0.936   0.936   0.936   0.936   0.936   0.936   0.936   0.936
   143.33    0.936   0.936   0.936   0.936   0.936   0.936   0.936   0.936   0.936   0.936   0.936   0.936   0.936   0.936   0.936   0.936   0.936   0.936   0.936   0.936   0.936   0.936   0.936   0.936   0.936   0.936   0.936   0.936   0.936   0.936   0.936
   138.00    0.936   0.936   0.936   0.936   0.936   0.936   0.936   0.936   0.936   0.936   0.936   0.936   0.936   0.936   0.936   0.936   0.936   0.936   0.936   0.936   0.936   0.936   0.936   0.936   0.936   0.936   0.936   0.936   0.936   0.936   0.936
   132.67    0.936   0.936   0.936   0.936   0.936   0.936   0.936   0.936   0.936   0.936   0.936   0.936   0.936   0.936   0.936   0.936   0.936   0.936   0.936   0.936   0.936   0.936   0.936   0.936   0.936   0.936   0.936   0.936   0.936   0.936   0.936
   127.33    0.936   0.936   0.936   0.936   0.936   0.936   0.936   0.936   0.936   0.936   0.936   0.936   0.936   0.936   0.936   0.936   0.936   0.936   0.936   0.936   0.936   0.936   0.936   0.936   0.936   0.936   0.936   0.936   0.936   0.936   0.936
   122.00    0.936   0.936   0.936   0.936   0.936   0.936   0.936   0.936   0.936   0.936   0.936   0.936   0.936   0.936   0.936   0.936   0.936   0.936   0.936   0.936   0.936   0.936   0.936   0.936   0.936   0.936   0.936   0.936   0.936   0.936   0.936
   116.67    0.936   0.936   0.936   0.936   0.936   0.936   0.936   0.936   0.936   0.936   0.936   0.936   0.936   0.936   0.936   0.936   0.936   0.936   0.936   0.936   0.936   0.936   0.936   0.936   0.936   0.936   0.936   0.936   0.936   0.936   0.936
   111.33    0.936   0.936   0.936   0.936   0.936   0.936   0.936   0.936   0.936   0.936   0.936   0.936   0.936   0.936   0.936   0.936   0.936   0.936   0.936   0.936   0.936   0.936   0.936   0.936   0.936   0.936   0.936   0.936   0.936   0.936   0.936
   106.00    0.936   0.936   0.936   0.936   0.936   0.936   0.936   0.936   0.936   0.936   0.936   0.936   0.936   0.936   0.936   0.936   0.936   0.936   0.936   0.936   0.936   0.936   0.936   0.936   0.936   0.936   0.936   0.936   0.936   0.936   0.936
   100.67    0.936   0.936   0.936   0.936   0.936   0.936   0.936   0.936   0.936   0.936   0.936   0.936   0.936   0.936   0.936   0.936   0.936   0.936   0.936   0.936   0.936   0.936   0.936   0.936   0.936   0.936   0.936   0.936   0.936   0.936   0.936
    95.33    0.936   0.936   0.936   0.936   0.936   0.936   0.936   0.936   0.936   0.936   0.936   0.936   0.936   0.936   0.936   0.936   0.936   0.936   0.936   0.936   0.936   0.936   0.936   0.936   0.936   0.936   0.936   0.936   0.936   0.936   0.936
    90.00    0.936   0.936   0.936   0.936   0.936   0.936   0.936   0.936   0.936   0.936   0.936   0.936   0.936   0.936   0.936   0.936   0.936   0.936   0.936   0.936   0.936   0.936   0.936   0.936   0.936   0.936   0.936   0.936   0.936   0.936   0.936
    84.67    0.936   0.936   0.936   0.936   0.936   0.936   0.936   0.936   0.936   0.936   0.936   0.936   0.936   0.936   0.936   0.936   0.936   0.936   0.936   0.936   0.936   0.936   0.936   0.936   0.936   0.936   0.936   0.936   0.936   0.936   0.936
    79.33    0.936   0.936   0.936   0.936   0.936   0.936   0.936   0.936   0.936   0.936   0.936   0.936   0.936   0.936   0.936   0.936   0.936   0.936   0.936   0.936   0.936   0.936   0.936   0.936   0.936   0.936   0.936   0.936   0.936   0.936   0.936
    74.00    0.936   0.936   0.936   0.936   0.936   0.936   0.936   0.936   0.936   0.936   0.936   0.936   0.936   0.936   0.936   0.936   0.936   0.936   0.936   0.936   0.936   0.936   0.936   0.936   0.936   0.936   0.936   0.936   0.936   0.936   0.936
    68.67    0.936   0.936   0.936   0.936   0.936   0.936   0.936   0.936   0.936   0.936   0.936   0.936   0.936   0.936   0.936   0.936   0.936   0.936   0.936   0.936   0.936   0.936   0.936   0.936   0.936   0.936   0.936   0.936   0.936   0.936   0.936
    63.33    0.936   0.936   0.936   0.936   0.936   0.936   0.936   0.936   0.936   0.936   0.936   0.936   0.936   0.936   0.936   0.936   0.936   0.936   0.936   0.936   0.936   0.936   0.936   0.936   0.936   0.936   0.936   0.936   0.936   0.936   0.936
    58.00    0.936   0.936   0.936   0.936   0.936   0.936   0.936   0.936   0.936   0.936   0.936   0.936   0.936   0.936   0.936   0.936   0.936   0.936   0.936   0.936   0.936   0.936   0.936   0.936   0.936   0.936   0.936   0.936   0.936   0.936   0.936
    52.67    0.936   0.936   0.936   0.936   0.936   0.936   0.936   0.936   0.936   0.936   0.936   0.936   0.936   0.936   0.936   0.936   0.936   0.936   0.936   0.936   0.936   0.936   0.936   0.936   0.936   0.936   0.936   0.936   0.936   0.936   0.936
    47.33    0.936   0.936   0.936   0.936   0.936   0.936   0.936   0.936   0.936   0.936   0.936   0.936   0.936   0.936   0.936   0.936   0.936   0.936   0.936   0.936   0.936   0.936   0.936   0.936   0.936   0.936   0.936   0.936   0.936   0.936   0.936
    42.00    0.936   0.936   0.936   0.936   0.936   0.936   0.936   0.936   0.936   0.936   0.936   0.936   0.936   0.936   0.936   0.936   0.936   0.936   0.936   0.936   0.936   0.936   0.936   0.936   0.936   0.936   0.936   0.936   0.936   0.936   0.936
    36.67    0.936   0.936   0.936   0.936   0.936   0.936   0.936   0.936   0.936   0.936   0.936   0.936   0.936   0.936   0.936   0.936   0.936   0.936   0.936   0.936   0.936   0.936   0.936   0.936   0.936   0.936   0.936   0.936   0.936   0.936   0.936
    31.33    0.936   0.936   0.936   0.936   0.936   0.936   0.936   0.936   0.936   0.936   0.936   0.936   0.936   0.936   0.936   0.936   0.936   0.936   0.936   0.936   0.936   0.936   0.936   0.936   0.936   0.936   0.936   0.936   0.936   0.936   0.936
    26.00    0.936   0.936   0.936   0.936   0.936   0.936   0.936   0.936   0.936   0.936   0.936   0.936   0.936   0.936   0.936   0.936   0.936   0.936   0.936   0.936   0.936   0.936   0.936   0.936   0.936   0.936   0.936   0.936   0.936   0.936   0.936
    20.67    0.936   0.936   0.936   0.936   0.936   0.936   0.936   0.936   0.936   0.936   0.936   0.936   0.936   0.936   0.936   0.936   0.936   0.936   0.936   0.936   0.936   0.936   0.936   0.936   0.936   0.936   0.936   0.936   0.936   0.936   0.936
    15.33    0.936   0.936   0.936   0.936   0.936   0.936   0.936   0.936   0.936   0.936   0.936   0.936   0.936   0.936   0.936   0.936   0.936   0.936   0.936   0.936   0.936   0.936   0.936   0.936   0.936   0.936   0.936   0.936   0.936   0.936   0.936
    10.00    0.936   0.936   0.936   0.936   0.936   0.936   0.936   0.936   0.936   0.936   0.936   0.936   0.936   0.936   0.936   0.936   0.936   0.936   0.936   0.936   0.936   0.936   0.936   0.936   0.936   0.936   0.936   0.936   0.936   0.936   0.936

   Mean standard deviation across all grid points:
      u component:    1.472 m/s
      v component:    1.404 m/s
      w component:    0.936 m/s


U-component (X) statistics from the hub grid point:

   Mean =   8.8000 m/s
   TI   =  19.3440 %


Normalizing Parameters for Binary Data (approximate statistics):

   UBar  =   8.8000 m/s
   TI(u) =  19.3440 %
   TI(v) =  15.9532 %
   TI(w) =  10.6325 %

   Height Offset =   0.0000 m
   Grid Base     =  10.0000 m

Nyquist frequency of turbulent wind field =        10.000 Hz


Processing complete.  29.906 CPU seconds used.
